13U
     RDKit          3D

 68 70  0  0  1  0  0  0  0  0999 V2000
   -1.5127    0.9179   -0.8931 C   0  0  0  0  0  0  0  0  0  0  0  0
   -0.7847   -0.0812   -0.8958 O   0  0  0  0  0  0  0  0  0  0  0  0
   -3.0482    0.8155   -0.8408 C   0  0  0  0  0  0  0  0  0  0  0  0
   -3.4665   -0.5896   -1.0061 N   0  0  0  0  0  0  0  0  0  0  0  0
   -4.8138   -0.8693   -0.4726 C   0  0  0  0  0  0  0  0  0  0  0  0
   -5.0096   -2.4013   -0.4237 C   0  0  0  0  0  0  0  0  0  0  0  0
   -5.6781   -2.9179    0.8562 C   0  0  0  0  0  0  0  0  0  0  0  0
   -7.1545   -2.5781    1.0692 C   0  0  0  0  0  0  0  0  0  0  0  0
   -7.4360   -1.1011    1.3444 C   0  0  0  0  0  0  0  0  0  0  0  0
   -7.9571   -0.3018    0.1514 C   0  0  0  0  0  0  0  0  0  0  0  0
   -7.3210   -0.5652   -1.2094 C   0  0  0  0  0  0  0  0  0  0  0  0
   -5.8571   -0.1568   -1.3592 C   0  0  0  0  0  0  0  0  0  0  0  0
   -0.9751    2.1861   -0.8809 N   0  0  0  0  0  0  0  0  0  0  0  0
    0.4726    2.3737   -0.8810 C   0  0  2  0  0  0  0  0  0  0  0  0
    1.0862    1.8970    0.4508 C   0  0  0  0  0  0  0  0  0  0  0  0
    0.6397    2.2203    1.5503 O   0  0  0  0  0  0  0  0  0  0  0  0
    0.6708    3.8879   -1.0245 C   0  0  0  0  0  0  0  0  0  0  0  0
   -0.6579    4.3864   -1.5807 C   0  0  0  0  0  0  0  0  0  0  0  0
   -1.6752    3.4547   -0.9442 C   0  0  0  0  0  0  0  0  0  0  0  0
    2.2064    1.1067    0.2947 N   0  0  0  0  0  0  0  0  0  0  0  0
    2.8124    0.4749    1.4417 C   0  0  0  0  0  0  0  0  0  0  0  0
    4.1461   -0.1153    1.0647 C   0  0  0  0  0  0  0  0  0  0  0  0
    4.2322   -1.4314    0.5802 C   0  0  0  0  0  0  0  0  0  0  0  0
    5.4589   -1.9772    0.1634 C   0  0  0  0  0  0  0  0  0  0  0  0
    6.6132   -1.1811    0.2604 C   0  0  0  0  0  0  0  0  0  0  0  0
    7.9536   -1.6874   -0.1333 C   0  0  0  0  0  0  0  0  0  0  0  0
    8.7131   -1.0380   -0.9560 N   0  0  0  0  0  0  0  0  0  0  0  0
    8.4291   -2.8542    0.3833 N   0  0  0  0  0  0  0  0  0  0  0  0
    6.5351    0.1349    0.7332 C   0  0  0  0  0  0  0  0  0  0  0  0
    5.3068    0.6653    1.1281 C   0  0  0  0  0  0  0  0  0  0  0  0
    5.4918   -3.3835   -0.3664 C   0  0  0  0  0  0  0  0  0  0  0  0
   -3.4749    1.4075   -1.6547 H   0  0  0  0  0  0  0  0  0  0  0  0
   -3.3640    1.2173    0.1283 H   0  0  0  0  0  0  0  0  0  0  0  0
   -2.7660   -1.1705   -0.5376 H   0  0  0  0  0  0  0  0  0  0  0  0
   -4.8506   -0.4720    0.5457 H   0  0  0  0  0  0  0  0  0  0  0  0
   -5.5397   -2.7672   -1.3109 H   0  0  0  0  0  0  0  0  0  0  0  0
   -4.0290   -2.8996   -0.4555 H   0  0  0  0  0  0  0  0  0  0  0  0
   -5.5957   -4.0132    0.8472 H   0  0  0  0  0  0  0  0  0  0  0  0
   -5.0988   -2.5838    1.7268 H   0  0  0  0  0  0  0  0  0  0  0  0
   -7.7664   -2.9618    0.2448 H   0  0  0  0  0  0  0  0  0  0  0  0
   -7.4767   -3.1407    1.9562 H   0  0  0  0  0  0  0  0  0  0  0  0
   -8.2081   -1.0419    2.1251 H   0  0  0  0  0  0  0  0  0  0  0  0
   -6.5631   -0.6086    1.7837 H   0  0  0  0  0  0  0  0  0  0  0  0
   -9.0291   -0.5163    0.0529 H   0  0  0  0  0  0  0  0  0  0  0  0
   -7.8872    0.7678    0.3873 H   0  0  0  0  0  0  0  0  0  0  0  0
   -7.8912    0.0148   -1.9494 H   0  0  0  0  0  0  0  0  0  0  0  0
   -7.4624   -1.6093   -1.5079 H   0  0  0  0  0  0  0  0  0  0  0  0
   -5.5930   -0.3233   -2.4145 H   0  0  0  0  0  0  0  0  0  0  0  0
   -5.7880    0.9278   -1.2007 H   0  0  0  0  0  0  0  0  0  0  0  0
    0.8934    1.8299   -1.7335 H   0  0  0  0  0  0  0  0  0  0  0  0
    0.8683    4.3665   -0.0569 H   0  0  0  0  0  0  0  0  0  0  0  0
    1.5109    4.1288   -1.6842 H   0  0  0  0  0  0  0  0  0  0  0  0
   -0.8476    5.4377   -1.3513 H   0  0  0  0  0  0  0  0  0  0  0  0
   -0.6664    4.2649   -2.6704 H   0  0  0  0  0  0  0  0  0  0  0  0
   -2.6000    3.3939   -1.5221 H   0  0  0  0  0  0  0  0  0  0  0  0
   -1.9100    3.7574    0.0821 H   0  0  0  0  0  0  0  0  0  0  0  0
    2.2880    0.6100   -0.5861 H   0  0  0  0  0  0  0  0  0  0  0  0
    2.1306   -0.3020    1.8076 H   0  0  0  0  0  0  0  0  0  0  0  0
    2.9259    1.2087    2.2485 H   0  0  0  0  0  0  0  0  0  0  0  0
    3.3259   -2.0336    0.5122 H   0  0  0  0  0  0  0  0  0  0  0  0
    8.2353   -0.1988   -1.3008 H   0  0  0  0  0  0  0  0  0  0  0  0
    9.4273   -2.9501    0.2257 H   0  0  0  0  0  0  0  0  0  0  0  0
    8.1541   -3.0630    1.3355 H   0  0  0  0  0  0  0  0  0  0  0  0
    7.4319    0.7464    0.8048 H   0  0  0  0  0  0  0  0  0  0  0  0
    5.2564    1.6924    1.4880 H   0  0  0  0  0  0  0  0  0  0  0  0
    5.8443   -4.0708    0.4074 H   0  0  0  0  0  0  0  0  0  0  0  0
    4.4941   -3.7084   -0.6874 H   0  0  0  0  0  0  0  0  0  0  0  0
    6.1408   -3.4539   -1.2462 H   0  0  0  0  0  0  0  0  0  0  0  0
  1  2  2  0
  1  3  1  0
  3  4  1  0
  4  5  1  0
  5  6  1  0
  5 12  1  0
  6  7  1  0
  7  8  1  0
  8  9  1  0
  9 10  1  0
 10 11  1  0
 11 12  1  0
 13  1  1  0
 14 17  1  0
 14 13  1  0
 15 20  1  0
 15 14  1  0
 16 15  2  0
 17 18  1  0
 18 19  1  0
 19 13  1  0
 20 21  1  0
 21 22  1  0
 22 30  1  0
 22 23  2  0
 24 23  1  0
 24 31  1  0
 25 26  1  0
 25 24  2  0
 26 27  2  0
 26 28  1  0
 29 25  1  0
 30 29  2  0
  3 32  1  0
  3 33  1  0
  4 34  1  0
  5 35  1  0
  6 36  1  0
  6 37  1  0
  7 38  1  0
  7 39  1  0
  8 40  1  0
  8 41  1  0
  9 42  1  0
  9 43  1  0
 10 44  1  0
 10 45  1  0
 11 46  1  0
 11 47  1  0
 12 48  1  0
 12 49  1  0
 14 50  1  6
 17 51  1  0
 17 52  1  0
 18 53  1  0
 18 54  1  0
 19 55  1  0
 19 56  1  0
 20 57  1  0
 21 58  1  0
 21 59  1  0
 23 60  1  0
 27 61  1  0
 28 62  1  0
 28 63  1  0
 29 64  1  0
 30 65  1  0
 31 66  1  0
 31 67  1  0
 31 68  1  0
M  END
